/*--------------------------------*- C++ -*----------------------------------*\
| =========                 |                                                 |
| \\      /  F ield         | OpenFOAM: The Open Source CFD Toolbox           |
|  \\    /   O peration     | Version:  3.0.1                                 |
|   \\  /    A nd           | Web:      www.OpenFOAM.org                      |
|    \\/     M anipulation  |                                                 |
\*---------------------------------------------------------------------------*/
FoamFile
{
    version     2.0;
    format      ascii;
    class       dictionary;
    location    "constant";
    object      thermophysicalProperties;
}
// * * * * * * * * * * * * * * * * * * * * * * * * * * * * * * * * * * * * * //

thermoType
{
    type            mojHeRhoThermo;
    mixture         pureMixture;
    //transport     crossWLF;
    transport       crossWLFTTC;// TTC = T-abulated T-hermal C-onductivity // see file: kappaTable
    //thermo        hPolynomial; // Use this also for constant Cp.
    thermo          hTabular;//hPolynomial; //see file: constant/cpTable
    equationOfState polymerPVT;//taitHCR;//TaitEquation. Might be renamed in the future.
    specie          specie;
    energy          sensibleInternalEnergy;
}

mixture
{
    wlf{
        D2         373.15;//K
        A1         25.7;//1
        A2         61.06;//K
    }
    specie
    {
        nMoles      1;
        molWeight   18.0;
    }
    equationOfState
    {
        b1m         0.972e-3;
        b2m         6.044e-7;
        b3m         1.85e8;
        b4m         4.93e-3;
        b1s         0.972e-3;
        b2s         2.248e-7;
        b3s         2.64e8;
        b4s         3.51e-3;
        b5          377.23;
        b6          0.3495e-6;
        b7          0.0;//polymerPVT
        b8          0.0;//polymerPVT
        b9          0.0;//polymerPVT
        b10         3.0;//taitHCR (smooth interpolation band width)
        tauRlx      2.0;//s
        $wlf;
        D3          $b6;
    }
    thermodynamics
    {
        Hf              0;
        Sf              0;
        //CpCoeffs<8>     (1000.0    0.0 0.0 0.0 0.0 0.0 0.0 0.0);//J/(kgK)
    }
    transport //PS Styron 678E - Vietri 2011
    {
        n          0.252;//1
        Tau        30800.0;//Pa
        D1         4.76e10;//Pa s
        D3         0.0e-6;//K/Pa
        $wlf;
        //kappa    0.22;//W/(mK) thermal conductivity in case of "thermo crossWLF". Ignored with crossWLFTTC.
        etaMin     5;//Pas
        etaMax     5e6;//Pas //This is the value of viscosity at T < TnoFlow.
        TnoFlow    373.15;//K
    }

//etaMax - High values cause instability during solidification, packing. High viscosity must reduce the shear rate and
//then elastic shear stress supports the material. See the constant/solidificationProperties file. If that file is not
//present, no elastic shear stress will be calculated even though the solver reads the related fvSchemes.


// ************************************************************************* //
