/*--------------------------------*- C++ -*----------------------------------*\
| =========                 |                                                 |
| \\      /  F ield         | OpenFOAM: The Open Source CFD Toolbox           |
|  \\    /   O peration     | Version:  3.0.1                                 |
|   \\  /    A nd           | Web:      www.OpenFOAM.org                      |
|    \\/     M anipulation  |                                                 |
\*---------------------------------------------------------------------------*/
FoamFile
{
    version     2.0;
    format      ascii;
    class       dictionary;
    location    "constant";
    object      thermophysicalProperties;
}
// * * * * * * * * * * * * * * * * * * * * * * * * * * * * * * * * * * * * * //

thermoType
{
    type            mojHeRhoThermo;
    mixture         pureMixture;
    transport       crossWLFTTC;//T-abulated T-hermal C-onductivity
    thermo          hTabular;//Tabulated Cp
    equationOfState polymerPVT;
    specie          specie;
    energy          sensibleInternalEnergy;
}

mixture
{
    specie
    {
        nMoles      1;
        molWeight   18.0;
    }
    equationOfState
    {
        b1m         9.76e-4;
        b2m         0.0; // testing
        b3m         1.67e8;
        b4m         0.0; // testing
        b1s         9.76e-4;
        b2s         0.0; // testing
        b3s         2.6e8;
        b4s         0.0; // testing
        b5          373.0;
        b6          5.1e-7;
        b7          0.0;
        b8          0.0;
        b9          0.0;
    }
    thermodynamics
    {
        Hf              0;
        Sf              0;
    }
    transport //PS Styron 678E - Vietri 2011
    {
            n          0.252;//1
        Tau        30800.0;//Pa
        D1         4.76e10;//Pa s
        D2         373.15;//K
        D3         0.0;//K/Pa
        A1         25.7;//1
        A2         61.06;//K
        etaMin     1e3;//Pas
        etaMax     1e3;//Pas
        TnoFlow    373.15;//K
    }
}


// ************************************************************************* //
