/*--------------------------------*- C++ -*----------------------------------*\
| =========                 |                                                 |
| \\      /  F ield         | OpenFOAM: The Open Source CFD Toolbox           |
|  \\    /   O peration     | Version:  3.0.1                                 |
|   \\  /    A nd           | Web:      www.OpenFOAM.org                      |
|    \\/     M anipulation  |                                                 |
\*---------------------------------------------------------------------------*/
FoamFile
{
    version     2.0;
    format      ascii;
    class       dictionary;
    location    "constant";
    object      thermophysicalProperties;
}
// * * * * * * * * * * * * * * * * * * * * * * * * * * * * * * * * * * * * * //

thermoType
{
    type            mojHeRhoThermo;//leave alone
    mixture         pureMixture;//leave alone
    //transport     crossWLF;// specify thermal conductivity kappa with the crossWLF constants.
    transport       crossWLFTTC;// TTC = T-abulated T-hermal C-onductivity // see file: kappaTable
    //thermo        hPolynomial; // Use this also for constant Cp.
    thermo          hTabular; //see file: constant/cpTable
    equationOfState polymerPVT;//TaitEquation. Might be renamed in the future.
    specie          specie;//leave alone
    energy          sensibleInternalEnergy;//leave alone
}

mixture
{
    specie//leave alone
    {
        nMoles      1;
        molWeight   18.0;
    }
    equationOfState
    {
        b1m         9.76e-4;
        b2m         5.8e-7;
        b3m         1.67e8;
        b4m         3.6e-3;
        b1s         9.76e-4;
        b2s         2.3e-7;
        b3s         2.6e8;
        b4s         3.0e-3;
        b5          373.0;
        b6          5.1e-7;
        b7          0.0;
        b8          0.0;
        b9          0.0;
    }
    thermodynamics
    {
        Hf              0;//leave alone
        Sf              0;//leave alone
        //CpCoeffs<8>     (1000.0    0.0 0.0 0.0 0.0 0.0 0.0 0.0);//J/(kgK)
    }
    transport //PS Styron 678E - Vietri 2011
    {
        n          0.252;//1
        Tau        30800.0;//Pa
        D1         4.76e10;//Pa s
        D2         373.15;//K
        D3         0.0e-6;//K/Pa
        A1         25.7;//1
        A2         61.06;//K
        kappa     0.22;//W/(mK) thermal conductivity in case of "thermo crossWLF". Ignored with crossWLFTTC.
        etaMin     5;//Pas
        etaMax     1e7;//Pas //This is the value of viscosity at T < TnoFlow. //Set higher than the value in the solidificationProperties to have elasticity.
        TnoFlow    373.15;//K
        deltaTempInterp 5.0;//The crossWLF viscosity starts interpolating to etaMax at TnoFlow+deltaTempInterp.
        //deltaTempInterp must be greater than 0. Leaving it out sets it to 5K.
    }
}
//etaMax - High values cause instability during solidification, packing. High viscosity must reduce the shear rate and
//then elastic shear stress supports the material. See the constant/solidificationProperties file. If that file is not
//present, no elastic shear stress will be calculated even though the solver reads the related fvSchemes.


// ************************************************************************* //
