/*--------------------------------*- C++ -*----------------------------------*\
//OpenFOAM-3.0.1/tutorials/lagrangian/reactingParcelFoam/parcelInBox/system/
| =========                 |                                                 |
| \\      /  F ield         | OpenFOAM: The Open Source CFD Toolbox           |
|  \\    /   O peration     | Version:  3.0.1                                 |
|   \\  /    A nd           | Web:      www.OpenFOAM.org                      |
|    \\/     M anipulation  |                                                 |
\*---------------------------------------------------------------------------*/
FoamFile
{
    version         2.0;
    format          ascii;
    class           dictionary;
    location        system;
    object          probesDict;
}

// * * * * * * * * * * * * * * * * * * * * * * * * * * * * * * * * * * * * //


// Fields to be probed. runTime modifiable!
fields
(
    Tc p rho
);

// Locations to be probed. runTime modifiable!
probeLocations
(
         (10e-3 0.05e-3 0.605e-3)
         (37.9e-3 0.05e-3 0.605e-3)
         (66.25e-3 0.05e-3 0.605e-3)
);

// * * * * * * * * * * * * * * * * * * * * * * * * * * * * * * * * * * * * //
