/*--------------------------------*- C++ -*----------------------------------*\
| =========                 |                                                 |
| \\      /  F ield         | OpenFOAM: The Open Source CFD Toolbox           |
|  \\    /   O peration     | Version:  3.0.1                                 |
|   \\  /    A nd           | Web:      www.OpenFOAM.org                      |
|    \\/     M anipulation  |                                                 |
\*---------------------------------------------------------------------------*/
FoamFile
{
    version     2.0;
    format      ascii;
    class       dictionary;
    location    "constant";
    object      solidificationProperties;
}
// * * * * * * * * * * * * * * * * * * * * * * * * * * * * * * * * * * * * * //
shearModulus 907e6;//Pa

// There will be no elastic behavior at shear rates above shrRateLimEl.
shrRateLimEl 1.0;//1/s

// There will be no elastic behavior at viscosities below viscLimEl.
// viscLimEl should be less than etaMax of crossWLF to allow elastic behavior.
viscLimEl 1e6;//Pas
// ************************************************************************* //
