/*--------------------------------*- C++ -*----------------------------------*\
| =========                 |                                                 |
| \\      /  F ield         | OpenFOAM: The Open Source CFD Toolbox           |
|  \\    /   O peration     | Version:  3.0.1                                 |
|   \\  /    A nd           | Web:      www.OpenFOAM.org                      |
|    \\/     M anipulation  |                                                 |
\*---------------------------------------------------------------------------*/
FoamFile
{
    version     2.0;
    format      ascii;
    class       dictionary;
    location    "constant";
    object      solidificationProperties;
}
// * * * * * * * * * * * * * * * * * * * * * * * * * * * * * * * * * * * * * //

shearModulus 200e6;//Pa

// fetch etaMax from the material properties
thermPropDict
{
#include "$FOAM_CASE/constant/thermophysicalProperties.poly"
}
etaMax $thermPropDict.mixture.transport.etaMax;

// There will be no elastic behavior at viscosities below viscLimEl.
// viscLimEl should be less than etaMax of crossWLF to allow elastic behavior.
viscLimEl #calc "$etaMax*0.9";//Pas
