/*--------------------------------*- C++ -*----------------------------------*\
| =========                 |                                                 |
| \\      /  F ield         | OpenFOAM: The Open Source CFH Toolbox           |
|  \\    /   O peration     | Version:  2.3.0                                 |
|   \\  /    A nd           | Web:      www.OpenFOAM.org                      |
|    \\/     M anipulation  |                                                 |
\*---------------------------------------------------------------------------*/
FoamFile
{
    version     2.0;
    format      ascii;
    class       dictionary;
    object      blockMeshHict;
}
// * * * * * * * * * * * * * * * * * * * * * * * * * * * * * * * * * * * * * //

a1  9.50;//box dim
a2 75.75;
b    0.1;
c   1.21;
na  1200;//refinement
nb     1;
nc    32;


convertToMeters 1e-3;

vertices
(
    ($a1  0   0)
    ($a2  0   0)
    ($a2  $b  0)
    ($a1  $b  0)

    ($a1  0  $c)
    ($a2  0  $c)
    ($a2  $b $c)
    ($a1  $b $c)

);

blocks
(
    hex (0 1 2 3 4 5 6 7) ($na $nb $nc) simpleGrading (1 1 1)
);


boundary
(
    inlet
    {
        type patch;
        faces
        (
            (0 4 7 3)
        );
    }
    outlet
    {
        type patch;
        faces
        (
            (2 6 5 1)
        );
    }

    wallUp
    {
        type patch;
        faces
        (
            (4 5 6 7)
        );
    }

    wallDown
    {
        type patch;
        faces
        (
            (0 3 2 1)
        );
    }

    frontAndBack
    {
        type empty;
        faces
        (
            (0 1 5 4)
            (7 6 2 3)
        );
    }
);

// ************************************************************************* //
